81

Cu   11.3108    0.1269    7.0219
Cu   10.9487   -2.5013    6.8291
Cu    6.0861    3.6769    9.9814
Cu    6.4032    1.6965    8.2748
Cu   12.0175   -1.5953   13.5297
Cu   12.9827   -0.2294    9.1869
Cu    9.0196   -4.4932    6.8458
Cu   10.7036    0.7494   13.8542
Cu    5.8611    0.2610   15.7202
Cu    7.7223    3.4025   12.0594
Cu    3.7249   -0.8098   14.3713
Cu   13.4885   -1.8134   11.3187
Cu    3.9105   -4.0903    7.3417
Cu    1.9838   -4.3346   12.1274
Cu    9.5792   -6.1738    9.1372
Cu    4.0961    1.8491   14.5118
Cu    8.5761   -7.0621   11.4062
Cu    2.8699   -5.0596    9.7225
Cu    8.5440    0.8576   15.5272
Cu    8.5613    2.6836    9.5780
Cu    1.4792   -2.7736   10.0228
Cu   12.6453   -2.8419    9.0456
Cu    9.1902   -0.8930    5.7211
Cu   10.9981    1.5306    9.2758
Cu    2.5163   -1.8179    7.6665
Cu    6.3153   -7.0547   12.9248
Cu    6.9734   -6.7536    9.2301
Cu    7.7086   -1.3679   16.7603
Cu    6.7588   -0.3967    6.6300
Cu    6.4476   -5.0885    7.0315
Cu    8.0707   -3.4894   15.2518
Cu    9.3133    2.9991   14.1355
Cu    3.5152   -3.5016   14.1092
Cu    5.9650   -4.5898   13.9006
Cu    3.2470    0.7859   12.2344
Cu   12.6635   -4.0507   12.6154
Cu   10.2421   -3.6342   13.5948
Cu    2.5328   -0.3252    9.8830
Cu    4.6495   -1.8862    6.0621
Cu    4.7637   -6.7065   10.8223
Cu    9.8105   -1.4554   15.0998
Cu    5.3984   -4.6719    9.3725
Cu    9.5620   -1.2569   12.6004
Cu    7.2346   -2.8355    5.8542
Cu    5.7121    0.3802   13.0826
Cu    7.8146   -3.1738   12.6541
Cu   11.6919   -5.0110   10.4164
Cu    7.8054   -4.2335    9.1370
Cu    7.2668   -0.9262   11.7363
Cu    8.5331   -2.0957    7.8853
Cu    4.5053   -4.1145   11.6610
Cu    3.0843   -1.9144   11.9792
Cu    4.6809   -0.4084    8.3103
Cu    9.3160   -4.5457   11.2158
Cu    4.3735    1.6318    9.9729
Cu    8.7388   -2.2723   10.3676
Cu    4.0187   -2.5895    9.6203
Cu    7.0166   -0.6603    9.2586
Cu    6.0682   -2.6300    8.0586
Cu    5.1457    2.6659   12.2256
Cu   10.2321   -3.6924    8.9826
Cu   11.0429   -2.6531   11.1812
Cu    4.9638   -0.6332   10.8375
Cu    6.7050    2.3598   14.2864
Cu    8.4096   -5.5189   13.4971
Cu   10.5666   -1.1572    9.1382
Cu    7.4785   -1.1495   14.1712
Cu    9.0710    0.2659   10.5282
Cu   10.1098    2.2079   11.7148
Cu    8.2639    0.9593   12.8960
Cu    5.4453   -2.1656   12.9006
Cu   11.4483   -0.0700   11.3764
Cu    8.8699    0.5107    7.9935
Cu   10.7713   -5.9630   12.5311
Cu    4.5157   -6.5598    8.1686
Cu    6.3111   -2.7773   10.5639
Cu    5.6362   -2.3886   15.3973
Cu    6.7125    1.2859   10.8589
Cu    6.8524   -5.0926   11.3778
Cu    3.8621   -5.9603   13.1500
H 0 0 0
